Version 4
SHEET 1 3164 680
WIRE 224 -48 32 -48
WIRE 1904 -32 1856 -32
WIRE 2096 -32 1984 -32
WIRE 224 32 224 -48
WIRE 320 32 320 -16
WIRE 320 32 224 32
WIRE 320 80 320 32
WIRE 160 144 160 96
WIRE 32 160 32 -48
WIRE 80 160 32 160
WIRE 320 176 320 160
WIRE 320 176 208 176
WIRE 480 176 320 176
WIRE 688 176 480 176
WIRE 80 192 16 192
WIRE 480 192 480 176
WIRE 1664 192 1664 144
WIRE 1856 192 1856 -32
WIRE 1856 192 1664 192
WIRE 1904 192 1856 192
WIRE 1664 208 1664 192
WIRE 2096 208 2096 -32
WIRE 2096 208 2032 208
WIRE 2240 208 2096 208
WIRE 2448 208 2320 208
WIRE 2592 208 2448 208
WIRE -128 224 -288 224
WIRE 16 224 16 192
WIRE 16 224 -128 224
WIRE 688 224 688 176
WIRE 880 224 752 224
WIRE 976 224 880 224
WIRE 1232 224 1040 224
WIRE 1392 224 1232 224
WIRE 1568 224 1392 224
WIRE 1856 224 1840 224
WIRE 1904 224 1856 224
WIRE 2448 224 2448 208
WIRE 2592 224 2592 208
WIRE 880 240 880 224
WIRE 1232 240 1232 224
WIRE 1392 240 1392 224
WIRE 688 272 688 224
WIRE 160 304 160 208
WIRE 1664 304 1664 288
WIRE 1568 432 1568 224
WIRE 1856 432 1856 224
WIRE 1856 432 1568 432
WIRE 16 464 16 224
WIRE 480 464 480 272
WIRE 480 464 16 464
FLAG 320 -96 0
FLAG 160 16 0
FLAG 160 384 0
FLAG -128 288 0
FLAG 880 304 0
FLAG 1232 320 0
FLAG 1392 304 0
FLAG 688 304 0
FLAG 1664 -16 0
FLAG 1664 304 0
FLAG 1984 320 0
FLAG 1984 96 0
FLAG -288 368 0
FLAG 2448 368 0
FLAG 2592 288 0
SYMBOL UA741 128 176 R0
SYMATTR InstName U1
SYMBOL voltage 160 112 R180
WINDOW 0 24 96 Left 2
WINDOW 3 24 68 Left 2
WINDOW 123 0 0 Left 0
WINDOW 39 0 0 Left 0
SYMATTR InstName V1
SYMATTR Value 8
SYMBOL voltage 160 288 R0
WINDOW 123 0 0 Left 0
WINDOW 39 0 0 Left 0
SYMATTR InstName V2
SYMATTR Value -8
SYMBOL res 304 64 R0
SYMATTR InstName R1
SYMATTR Value 10k
SYMBOL res 464 176 R0
SYMATTR InstName R2
SYMATTR Value 6Meg
SYMBOL res 304 -112 R0
SYMATTR InstName R3
SYMATTR Value 10k
SYMBOL cap -144 224 R0
SYMATTR InstName C1
SYMATTR Value 20p
SYMBOL cap 752 208 R90
WINDOW 0 0 32 VBottom 2
WINDOW 3 32 32 VTop 2
SYMATTR InstName C2
SYMATTR Value 1n
SYMBOL diode 896 304 R180
WINDOW 0 24 64 Left 2
WINDOW 3 24 0 Left 2
SYMATTR InstName D1
SYMATTR Value 1N4148
SYMBOL diode 976 240 R270
WINDOW 0 32 32 VTop 2
WINDOW 3 0 32 VBottom 2
SYMATTR InstName D2
SYMATTR Value 1N4148
SYMBOL res 1216 224 R0
SYMATTR InstName R4
SYMATTR Value 100k
SYMBOL cap 1376 240 R0
SYMATTR InstName C3
SYMATTR Value 100n
SYMBOL UA741 1952 208 R0
SYMATTR InstName U2
SYMBOL voltage 1984 192 R180
WINDOW 0 24 96 Left 2
WINDOW 3 24 16 Left 2
WINDOW 123 0 0 Left 0
WINDOW 39 0 0 Left 0
SYMATTR InstName V3
SYMATTR Value 8
SYMBOL voltage 1984 224 R0
WINDOW 123 0 0 Left 0
WINDOW 39 0 0 Left 0
SYMATTR InstName V4
SYMATTR Value -8
SYMBOL res 1648 192 R0
SYMATTR InstName R5
SYMATTR Value 3k
SYMBOL res 1648 48 R0
SYMATTR InstName R6
SYMATTR Value 5k
SYMBOL voltage 1664 80 R180
WINDOW 0 24 96 Left 2
WINDOW 3 24 16 Left 2
WINDOW 123 0 0 Left 0
WINDOW 39 0 0 Left 0
SYMATTR InstName V5
SYMATTR Value 8
SYMBOL res 2000 -48 R90
WINDOW 0 0 56 VBottom 2
WINDOW 3 32 56 VTop 2
SYMATTR InstName R7
SYMATTR Value 1Meg
SYMBOL cap -304 224 R0
SYMATTR InstName C4
SYMATTR Value 5p
SYMBOL res -304 272 R0
SYMATTR InstName R8
SYMATTR Value R={if(time>100m&time<200m, 1, 100Meg)}
SYMBOL res 2336 192 R90
WINDOW 0 0 56 VBottom 2
WINDOW 3 32 56 VTop 2
SYMATTR InstName R9
SYMATTR Value 10k
SYMBOL diode 2432 224 R0
SYMATTR InstName D3
SYMATTR Value 1N4148
SYMBOL diode 2608 288 R180
WINDOW 0 24 64 Left 2
WINDOW 3 24 0 Left 2
SYMATTR InstName D4
SYMATTR Value 1N4148
SYMBOL voltage 2448 272 R0
WINDOW 123 0 0 Left 0
WINDOW 39 0 0 Left 0
SYMATTR InstName V6
SYMATTR Value 5
TEXT -144 472 Left 2 !.tran 250m
